Version 4
SHEET 1 1484 1284
WIRE 528 -288 528 -352
WIRE 464 -208 -752 -208
WIRE 464 -176 464 -208
WIRE 528 -128 528 -208
WIRE 640 -128 528 -128
WIRE 640 -80 640 -128
WIRE -752 -32 -752 -208
WIRE -704 -32 -752 -32
WIRE -176 -32 -624 -32
WIRE 528 -32 528 -128
WIRE 528 -32 -176 -32
WIRE -528 32 -576 32
WIRE -176 32 -176 -32
WIRE -176 32 -192 32
WIRE 464 48 464 -96
WIRE 528 48 528 -32
WIRE 640 48 640 0
WIRE 640 48 560 48
WIRE -752 112 -752 -32
WIRE -752 112 -880 112
WIRE -528 112 -752 112
WIRE -80 112 -192 112
WIRE -64 112 -80 112
WIRE 48 112 0 112
WIRE 80 112 48 112
WIRE -752 144 -752 112
WIRE -880 160 -880 112
WIRE -528 192 -672 192
WIRE -144 192 -192 192
WIRE -80 192 -80 112
WIRE -64 192 -80 192
WIRE 48 192 48 112
WIRE 48 192 16 192
WIRE -752 272 -752 224
WIRE -672 272 -672 192
WIRE -672 272 -752 272
WIRE -656 272 -672 272
WIRE -528 272 -576 272
WIRE -160 272 -192 272
WIRE -880 320 -880 240
WIRE -752 480 -752 272
WIRE -464 480 -752 480
WIRE -272 480 -400 480
WIRE -160 480 -160 272
WIRE -160 480 -208 480
WIRE -752 624 -752 480
WIRE -464 624 -752 624
WIRE -320 624 -384 624
WIRE -160 624 -160 480
WIRE -160 624 -240 624
WIRE -464 752 -528 752
WIRE -352 752 -384 752
WIRE 48 752 -208 752
WIRE 464 752 464 240
WIRE 464 752 48 752
WIRE 704 752 464 752
WIRE 928 752 784 752
WIRE 1152 752 928 752
WIRE 1344 752 1152 752
WIRE 1152 784 1152 752
WIRE 1344 784 1344 752
WIRE 48 800 48 752
WIRE 928 816 928 752
WIRE 560 848 560 240
WIRE -528 864 -528 752
WIRE 1152 912 1152 848
WIRE 1344 912 1344 864
WIRE 48 944 48 880
WIRE 560 944 560 928
WIRE 560 944 48 944
WIRE 560 960 560 944
WIRE 48 1040 48 944
WIRE 96 1040 48 1040
WIRE 560 1040 560 1024
WIRE 560 1040 176 1040
WIRE 928 1040 928 896
WIRE 928 1040 560 1040
WIRE 224 1104 176 1104
WIRE 928 1120 928 1040
WIRE 928 1264 928 1200
FLAG -576 32 0
FLAG -144 192 0
FLAG 80 112 0
FLAG -880 320 0
FLAG 528 -352 0
FLAG -528 864 0
FLAG 224 1104 0
FLAG 928 1264 0
FLAG 1152 912 0
FLAG 1344 912 0
FLAG 1344 752 Output
IOPIN 1344 752 Out
SYMBOL mc34063 -288 176 M180
SYMATTR InstName U1
SYMATTR Value MC34063p
SYMBOL diode -208 464 R90
WINDOW 0 0 32 VBottom 2
WINDOW 3 32 32 VTop 2
SYMATTR InstName D1
SYMBOL zener -464 496 R270
WINDOW 0 36 32 VTop 2
WINDOW 3 -4 32 VBottom 2
SYMATTR InstName D2
SYMATTR Value BZX84C24VLY
SYMBOL res -560 256 R90
WINDOW 0 0 56 VBottom 2
WINDOW 3 32 56 VTop 2
SYMATTR InstName R1
SYMATTR Value 220
SYMBOL res -768 128 R0
SYMATTR InstName R2
SYMATTR Value 0.3
SYMBOL ind2 -480 640 R270
WINDOW 0 32 56 VTop 2
WINDOW 3 4 56 VBottom 2
SYMATTR InstName L1
SYMATTR Value 37.869µ
SYMATTR Type ind
SYMBOL ind2 -480 736 M90
WINDOW 0 5 56 VBottom 2
WINDOW 3 32 56 VTop 2
SYMATTR InstName L2
SYMATTR Value 292.197µ
SYMATTR Type ind
SYMBOL res -608 -48 R90
WINDOW 0 0 56 VBottom 2
WINDOW 3 32 56 VTop 2
SYMATTR InstName R3
SYMATTR Value 22k
SYMBOL cap 0 96 R90
WINDOW 0 0 32 VBottom 2
WINDOW 3 32 32 VTop 2
SYMATTR InstName C1
SYMATTR Value 680p
SYMBOL voltage -880 144 R0
WINDOW 123 0 0 Left 0
WINDOW 39 0 0 Left 0
SYMATTR InstName V1
SYMATTR Value 12
SYMBOL Optos\\4N25 528 144 R270
SYMATTR InstName U2
SYMBOL res 512 -304 R0
SYMATTR InstName R5
SYMATTR Value 2.2k
SYMBOL res 448 -192 R0
SYMATTR InstName R6
SYMATTR Value 2k
SYMBOL res 624 -96 R0
SYMATTR InstName R7
SYMATTR Value 220k
SYMBOL diode -272 768 R270
WINDOW 0 32 32 VTop 2
WINDOW 3 0 32 VBottom 2
SYMATTR InstName D3
SYMATTR Value UF2003
SYMBOL TL431 128 1072 R0
SYMATTR InstName U3
SYMBOL res 32 784 R0
SYMATTR InstName R8
SYMATTR Value 10k
SYMBOL cap 544 960 R0
SYMATTR InstName C2
SYMATTR Value 10n
SYMBOL res 544 832 R0
SYMATTR InstName R9
SYMATTR Value 680
SYMBOL ind 800 736 R90
WINDOW 0 5 56 VBottom 2
WINDOW 3 32 56 VTop 2
SYMATTR InstName L3
SYMATTR Value 1µ
SYMBOL res 912 800 R0
SYMATTR InstName R10
SYMATTR Value 90k
SYMBOL res 912 1104 R0
SYMATTR InstName R11
SYMATTR Value 10k
SYMBOL cap 1136 784 R0
SYMATTR InstName C3
SYMATTR Value 1µ
SYMATTR SpiceLine V=6.3 Irms=0 Rser=0.0109 Lser=230p
SYMBOL res 1328 768 R0
SYMATTR InstName R12
SYMATTR Value 330
SYMBOL res 32 176 R90
WINDOW 0 0 56 VBottom 2
WINDOW 3 32 56 VTop 2
SYMATTR InstName R4
SYMATTR Value 1Meg
SYMBOL res -224 608 R90
WINDOW 0 0 56 VBottom 2
WINDOW 3 32 56 VTop 2
SYMATTR InstName R13
SYMATTR Value 0.7
SYMBOL res -256 736 R90
WINDOW 0 0 56 VBottom 2
WINDOW 3 32 56 VTop 2
SYMATTR InstName R14
SYMATTR Value 1.07
TEXT 672 368 Left 2 !.include mc34063.lib
TEXT 672 400 Left 2 !.include UF2003.lib
TEXT 672 440 Left 2 !.include TL431.lib
TEXT 672 480 Left 2 !.tran 0 20m 19m startup
TEXT -608 696 Left 2 !k l1 l2 0.92
