Version 4
SHEET 1 1204 680
WIRE -352 -144 -496 -144
WIRE -176 -144 -352 -144
WIRE -32 -144 -176 -144
WIRE 272 -144 -32 -144
WIRE 400 -144 272 -144
WIRE 560 -144 400 -144
WIRE 656 -144 560 -144
WIRE 848 -144 656 -144
WIRE 992 -144 848 -144
WIRE 1136 -144 992 -144
WIRE 560 -128 560 -144
WIRE 656 -128 656 -144
WIRE 992 -128 992 -144
WIRE 848 -96 848 -144
WIRE 1136 -96 1136 -144
WIRE -176 -48 -176 -144
WIRE 400 -48 400 -144
WIRE 992 -48 992 -64
WIRE 560 -16 560 -48
WIRE 656 -16 656 -48
WIRE 656 -16 560 -16
WIRE -32 32 -32 -144
WIRE -16 32 -32 32
WIRE 256 32 208 32
WIRE -176 48 -176 32
WIRE -80 48 -176 48
WIRE -176 64 -176 48
WIRE 656 80 656 48
WIRE 752 80 656 80
WIRE 880 80 832 80
WIRE 992 80 992 32
WIRE 992 80 960 80
WIRE 1136 80 1136 -16
WIRE 1136 80 992 80
WIRE -80 96 -80 48
WIRE -16 96 -80 96
WIRE 224 96 208 96
WIRE -496 112 -496 -144
WIRE -352 112 -352 -144
WIRE 656 112 656 80
WIRE -176 160 -176 144
WIRE -32 160 -176 160
WIRE -16 160 -32 160
WIRE 304 160 208 160
WIRE -176 192 -176 160
WIRE 304 192 304 160
WIRE 400 192 400 32
WIRE 400 192 304 192
WIRE 608 192 400 192
WIRE 272 224 272 -144
WIRE 272 224 208 224
WIRE -32 288 -32 160
WIRE 224 288 224 96
WIRE 224 288 -32 288
WIRE -496 336 -496 192
WIRE -352 336 -352 176
WIRE -352 336 -496 336
WIRE -176 336 -176 256
WIRE -176 336 -352 336
WIRE 256 336 256 32
WIRE 256 336 -176 336
WIRE 656 336 656 208
WIRE 656 336 256 336
FLAG 848 -96 0
FLAG 656 80 X
SYMBOL Misc\\NE555 96 128 M0
SYMATTR InstName U1
SYMBOL voltage -496 96 R0
WINDOW 123 0 0 Left 0
WINDOW 39 0 0 Left 0
SYMATTR InstName V1
SYMATTR Value 14
SYMBOL polcap -368 112 R0
WINDOW 3 24 56 Left 2
SYMATTR Value 100µ
SYMATTR InstName C1
SYMATTR Description Capacitor
SYMATTR Type cap
SYMATTR SpiceLine V=2 Irms=3 Rser=0.006 Lser=0 mfg="Rubycon" pn="2SLE100M" type="Al electrolytic"
SYMBOL res -192 -64 R0
SYMATTR InstName R1
SYMATTR Value 6.2k
SYMBOL res -192 48 R0
SYMATTR InstName R2
SYMATTR Value 3.8k
SYMBOL cap -192 192 R0
SYMATTR InstName C2
SYMATTR Value 2.2n
SYMBOL res 384 -64 R0
SYMATTR InstName R3
SYMATTR Value 750
SYMBOL res 544 -144 R0
SYMATTR InstName R4
SYMATTR Value 1
SYMBOL res 640 -144 R0
SYMATTR InstName R5
SYMATTR Value 1
SYMBOL diode 672 48 R180
WINDOW 0 24 64 Left 2
WINDOW 3 24 0 Left 2
SYMATTR InstName D1
SYMATTR Value uf4007
SYMBOL ind 848 64 R90
WINDOW 0 5 56 VBottom 2
WINDOW 3 32 56 VTop 2
SYMATTR InstName L1
SYMATTR Value 326µ
SYMBOL res 976 64 R90
WINDOW 0 0 56 VBottom 2
WINDOW 3 32 56 VTop 2
SYMATTR InstName R6
SYMATTR Value 1.9
SYMBOL res 1008 48 R180
WINDOW 0 36 76 Left 2
WINDOW 3 36 40 Left 2
SYMATTR InstName R7
SYMATTR Value 0.25
SYMBOL polcap 976 -128 R0
WINDOW 3 24 56 Left 2
SYMATTR Value 100µ
SYMATTR InstName C3
SYMATTR Description Capacitor
SYMATTR Type cap
SYMATTR SpiceLine V=2 Irms=3 Rser=0.006 Lser=0 mfg="Rubycon" pn="2SLE100M" type="Al electrolytic"
SYMBOL res 1120 -112 R0
SYMATTR InstName R8
SYMATTR Value 68
SYMBOL nmos 608 112 R0
SYMATTR InstName M1
SYMATTR Value irfz44n
TEXT -528 -280 Left 2 !.include uf4007.txt
TEXT -528 -240 Left 2 !.include irfz44n.txt
TEXT -528 344 Left 2 !.tran 0 50ms 49.8m
