Version 4
SHEET 1 4548 1216
WIRE 1104 -208 1056 -208
WIRE 1328 -208 1104 -208
WIRE 2496 -176 2432 -176
WIRE 3072 -176 2496 -176
WIRE 2496 -128 2496 -176
WIRE 2624 -128 2496 -128
WIRE 3072 -80 3072 -176
WIRE 2496 -64 2496 -128
WIRE 2624 -64 2624 -128
WIRE 1824 0 1664 0
WIRE 2304 16 2224 16
WIRE 2448 16 2384 16
WIRE 1664 32 1664 0
WIRE 1824 48 1824 0
WIRE 1968 48 1824 48
WIRE 2176 48 2032 48
WIRE 2496 48 2496 32
WIRE 2624 48 2624 0
WIRE 2624 48 2496 48
WIRE 96 64 96 16
WIRE 656 64 240 64
WIRE -256 112 -256 96
WIRE 1664 112 1664 96
WIRE 608 128 560 128
WIRE 608 144 608 128
WIRE 1824 160 1824 48
WIRE 1824 160 1760 160
WIRE 1888 160 1824 160
WIRE 2176 160 2176 48
WIRE 2176 160 2112 160
WIRE 2304 160 2176 160
WIRE 2304 176 2304 160
WIRE 2496 176 2496 48
WIRE 2496 176 2416 176
WIRE 2752 176 2496 176
WIRE 2864 176 2832 176
WIRE 3072 176 3072 -16
WIRE 3072 176 2944 176
WIRE 96 192 96 144
WIRE 336 192 96 192
WIRE 656 192 656 64
WIRE 656 192 560 192
WIRE 1136 208 1136 16
WIRE 3072 208 3072 176
WIRE 1328 224 1328 -208
WIRE 1552 224 1328 224
WIRE 1888 224 1632 224
WIRE 2224 224 2224 16
WIRE 2224 224 2112 224
WIRE 96 256 96 192
WIRE 240 256 240 64
WIRE 240 256 160 256
WIRE 336 256 240 256
WIRE 352 256 336 256
WIRE 752 256 560 256
WIRE 1072 256 832 256
WIRE 2496 256 2496 176
WIRE 2624 256 2496 256
WIRE 2496 272 2496 256
WIRE 1888 288 1664 288
WIRE 2304 288 2304 240
WIRE 2304 288 2112 288
WIRE 2416 288 2416 176
WIRE 2416 288 2304 288
WIRE 2624 288 2624 256
WIRE 2752 304 2704 304
WIRE 2880 304 2832 304
WIRE 3008 304 2960 304
WIRE 1136 336 1136 304
WIRE 1552 336 1136 336
WIRE 1664 336 1664 288
WIRE 1664 336 1632 336
WIRE 1136 352 1136 336
WIRE 1888 352 1856 352
WIRE 2240 352 2112 352
WIRE 2448 352 2320 352
WIRE 96 384 96 336
WIRE 160 384 160 256
WIRE 160 384 96 384
WIRE 1136 384 1136 352
WIRE 1856 384 1856 352
WIRE 2496 400 2496 368
WIRE 2624 400 2624 352
WIRE 2624 400 2496 400
WIRE 96 416 96 384
WIRE 2496 448 2496 400
WIRE 1136 512 1136 464
WIRE 96 528 96 480
WIRE 2704 576 2704 304
WIRE 2912 576 2704 576
WIRE 3008 576 3008 304
WIRE 3008 576 2976 576
WIRE 3184 576 3008 576
WIRE 2704 688 2704 576
WIRE 2912 688 2912 576
WIRE 2976 688 2976 576
WIRE 3184 688 3184 576
WIRE 2912 800 2912 752
WIRE 3184 800 3184 752
WIRE 3184 800 2912 800
WIRE 3328 800 3184 800
WIRE 2704 864 2704 752
WIRE 2976 864 2976 752
WIRE 2976 864 2704 864
WIRE 2704 960 2704 864
WIRE 2768 960 2704 960
WIRE 2928 960 2848 960
WIRE 3040 960 3008 960
WIRE 3104 960 3040 960
WIRE 3312 960 3168 960
WIRE 3328 960 3328 800
WIRE 3328 960 3312 960
WIRE 3424 960 3328 960
WIRE 3424 992 3424 960
WIRE 3040 1072 3040 960
WIRE 3104 1072 3040 1072
WIRE 3312 1072 3312 960
WIRE 3312 1072 3184 1072
WIRE 3040 1104 3040 1072
FLAG -256 112 0
FLAG -256 16 Vcc
FLAG 336 128 Vcc
FLAG 608 144 0
FLAG 560 320 Vcc
FLAG 96 528 0
FLAG 96 16 Vcc
FLAG 1136 512 0
FLAG 1136 16 Vcc
FLAG 832 -336 0
FLAG 1136 352 SD\
FLAG 1104 -208 IN
FLAG 1760 160 Vcc
FLAG 1664 112 0
FLAG 1856 384 0
FLAG 3424 992 0
FLAG 2432 -176 Vd
IOPIN 2432 -176 In
FLAG 3040 1104 Vout
IOPIN 3040 1104 Out
FLAG 1680 -176 0
FLAG 1680 -256 Vd
IOPIN 1680 -256 In
FLAG 832 -272 SD\
FLAG 2496 448 0
FLAG 3072 272 0
SYMBOL Misc\\NE555 448 224 M0
SYMATTR InstName U1
SYMBOL voltage -256 0 R0
WINDOW 123 0 0 Left 0
WINDOW 39 0 0 Left 0
SYMATTR InstName V1
SYMATTR Value 10
SYMBOL res 112 48 M0
SYMATTR InstName R_A
SYMATTR Value 6.8k
SYMBOL res 112 240 M0
SYMATTR InstName R_B
SYMATTR Value 6.8k
SYMBOL cap 112 416 M0
SYMATTR InstName C_T
SYMATTR Value 2.2n
SYMBOL pnp 1072 304 M180
SYMATTR InstName Q1
SYMATTR Value BC308
SYMBOL res 848 240 R90
WINDOW 0 0 56 VBottom 2
WINDOW 3 32 56 VTop 2
SYMATTR InstName R_base
SYMATTR Value 1k
SYMBOL res 1120 368 R0
SYMATTR InstName R_collector
SYMATTR Value 100k
SYMBOL CD4020B 944 -400 R0
SYMATTR InstName U2
SYMATTR SpiceLine VDD=10  SPEED=1.0  TRIPDT=5e-9
SYMBOL res 1648 208 R90
WINDOW 0 0 56 VBottom 2
WINDOW 3 32 56 VTop 2
SYMATTR InstName R3
SYMATTR Value 100
SYMBOL res 1648 320 R90
WINDOW 0 0 56 VBottom 2
WINDOW 3 32 56 VTop 2
SYMATTR InstName R4
SYMATTR Value 100
SYMBOL IR2109 2000 256 R0
SYMATTR InstName U3
SYMBOL polcap 1648 32 R0
WINDOW 3 24 56 Left 2
SYMATTR Value 10µ
SYMATTR InstName C5
SYMATTR Description Capacitor
SYMATTR Type cap
SYMATTR SpiceLine V=16 Irms=17m Rser=2.2912 Lser=1.063n mfg="Würth Elektronik" pn="865230340001 WCAP-AS5H 4x5,5" type="Al electrolytic"
SYMBOL diode 2688 688 R0
SYMATTR InstName D1
SYMATTR Value UF2003
SYMBOL nmos 2448 272 R0
SYMATTR InstName M1
SYMATTR Value IRFZ44N
SYMBOL nmos 2448 -64 R0
SYMATTR InstName M2
SYMATTR Value IRFZ44N
SYMBOL res 2336 336 R90
WINDOW 0 0 56 VBottom 2
WINDOW 3 32 56 VTop 2
SYMATTR InstName R2
SYMATTR Value 33
SYMBOL cap 2288 176 R0
SYMATTR InstName C4
SYMATTR Value 50n
SYMBOL res 2400 0 R90
WINDOW 0 0 56 VBottom 2
WINDOW 3 32 56 VTop 2
SYMATTR InstName R1
SYMATTR Value 33
SYMBOL diode 2928 752 R180
WINDOW 0 24 64 Left 2
WINDOW 3 24 0 Left 2
SYMATTR InstName D2
SYMATTR Value UF2003
SYMBOL diode 2960 688 R0
SYMATTR InstName D3
SYMATTR Value UF2003
SYMBOL diode 3200 752 R180
WINDOW 0 24 64 Left 2
WINDOW 3 24 0 Left 2
SYMATTR InstName D4
SYMATTR Value UF2003
SYMBOL diode 1968 64 R270
WINDOW 0 32 32 VTop 2
WINDOW 3 0 32 VBottom 2
SYMATTR InstName D5
SYMATTR Value UF2003
SYMBOL ind2 2960 192 M270
WINDOW 0 32 56 VTop 2
WINDOW 3 4 56 VBottom 2
SYMATTR InstName LP
SYMATTR Value 37.869µ
SYMATTR Type ind
SYMBOL ind2 2976 288 R90
WINDOW 0 5 56 VBottom 2
WINDOW 3 32 56 VTop 2
SYMATTR InstName LS
SYMATTR Value 292.197µ
SYMATTR Type ind
SYMBOL polcap 3056 -80 R0
WINDOW 3 24 56 Left 2
SYMATTR Value 150µ
SYMATTR InstName C1
SYMATTR Description Capacitor
SYMATTR Type cap
SYMATTR SpiceLine V=35 Irms=632m Rser=0.18 Lser=3n mfg="Würth Elektronik" pn="860240575007 WCAP-AT1H 10x16" type="Al electrolytic"
SYMBOL polcap 3056 208 R0
WINDOW 3 24 56 Left 2
SYMATTR Value 150µ
SYMATTR InstName C2
SYMATTR Description Capacitor
SYMATTR Type cap
SYMATTR SpiceLine V=35 Irms=550m Rser=0.155 Lser=3.4n mfg="Würth Elektronik" pn="865060553007 WCAP-ASLL 8x10,5" type="Al electrolytic"
SYMBOL ind2 2864 944 R90
WINDOW 0 4 56 VBottom 2
WINDOW 3 32 56 VTop 2
SYMATTR InstName L1
SYMATTR Value 326µ
SYMATTR Type ind
SYMBOL polcap 3104 976 R270
WINDOW 0 32 32 VTop 2
WINDOW 3 0 32 VBottom 2
SYMATTR InstName C3
SYMATTR Value 100µ
SYMATTR Description Capacitor
SYMATTR Type cap
SYMATTR SpiceLine V=50 Irms=286m Rser=0.278 Lser=3.3n
SYMBOL voltage 1680 -272 R0
WINDOW 123 0 0 Left 0
WINDOW 39 0 0 Left 0
SYMATTR InstName V2
SYMATTR Value 22
SYMBOL res 2848 160 R90
WINDOW 0 0 56 VBottom 2
WINDOW 3 32 56 VTop 2
SYMATTR InstName R5
SYMATTR Value 0.74
SYMBOL res 2848 288 R90
WINDOW 0 0 56 VBottom 2
WINDOW 3 32 56 VTop 2
SYMATTR InstName R6
SYMATTR Value 1.1
SYMBOL res 3200 1056 R90
WINDOW 0 0 56 VBottom 2
WINDOW 3 32 56 VTop 2
SYMATTR InstName R8
SYMATTR Value 220
SYMBOL diode 2640 0 R180
WINDOW 0 24 64 Left 2
WINDOW 3 24 0 Left 2
SYMATTR InstName D6
SYMATTR Value UF2003
SYMBOL diode 2640 352 R180
WINDOW 0 24 64 Left 2
WINDOW 3 24 0 Left 2
SYMATTR InstName D7
SYMATTR Value UF2003
SYMBOL res 3024 944 R90
WINDOW 0 0 56 VBottom 2
WINDOW 3 32 56 VTop 2
SYMATTR InstName R7
SYMATTR Value 1.9
TEXT 448 -64 Left 2 !.tran 100m
TEXT 448 -96 Left 2 !.inc BC308.txt
TEXT 448 -128 Left 2 !.inc CD4000.lib
TEXT 448 -160 Left 2 !.inc UF2003.lib
TEXT 448 -184 Left 2 !.inc IRFZ44N.txt
TEXT 2720 240 Left 2 !K LP LS 0.98
