Version 4
SHEET 1 2632 680
WIRE 1776 -16 1440 -16
WIRE 1776 16 1776 -16
WIRE 192 80 0 80
WIRE 352 80 272 80
WIRE 480 80 352 80
WIRE 592 80 576 80
WIRE 752 80 672 80
WIRE 944 80 752 80
WIRE 0 112 0 80
WIRE 352 112 352 80
WIRE 480 112 480 80
WIRE 576 112 576 80
WIRE 752 128 672 128
WIRE 1056 128 944 128
WIRE 1104 128 1056 128
WIRE 1264 128 1184 128
WIRE 1440 128 1440 -16
WIRE 1440 128 1264 128
WIRE 1648 128 1568 128
WIRE 2048 128 1904 128
WIRE 2176 128 2048 128
WIRE 2432 128 2176 128
WIRE 752 144 752 128
WIRE 944 144 944 128
WIRE 1440 160 1440 128
WIRE 2048 160 2048 128
WIRE 1568 176 1568 128
WIRE 848 192 752 192
WIRE 944 192 848 192
WIRE 2176 192 2176 128
WIRE 1056 224 1056 192
WIRE 1264 224 1264 192
WIRE 0 240 0 192
WIRE 352 240 352 192
WIRE 352 240 0 240
WIRE 480 240 480 192
WIRE 480 240 352 240
WIRE 576 240 576 192
WIRE 848 240 848 192
WIRE 848 240 576 240
WIRE 1776 256 1776 240
WIRE 0 272 0 240
WIRE 672 336 672 128
WIRE 1056 336 1056 304
WIRE 1056 336 672 336
WIRE 1264 336 1264 304
WIRE 1264 336 1056 336
WIRE 1440 336 1440 304
WIRE 1440 336 1264 336
WIRE 1568 336 1568 256
WIRE 1568 336 1440 336
WIRE 1776 336 1568 336
WIRE 2048 336 2048 304
WIRE 2048 336 1776 336
WIRE 2176 336 2176 272
WIRE 2176 336 2048 336
WIRE 1776 384 1776 336
FLAG 0 272 0
FLAG 1776 384 0
FLAG 2432 128 Vout
SYMBOL voltage 0 96 R0
WINDOW 123 0 0 Left 0
WINDOW 39 0 0 Left 0
SYMATTR InstName V1
SYMATTR Value SINE(0 276.5 50)
SYMBOL res 288 64 R90
WINDOW 0 0 56 VBottom 2
WINDOW 3 32 56 VTop 2
SYMATTR InstName R1
SYMATTR Value 75
SYMBOL res 368 208 R180
WINDOW 0 36 76 Left 2
WINDOW 3 36 40 Left 2
SYMATTR InstName R2
SYMATTR Value 48k
SYMBOL ind2 464 96 R0
SYMATTR InstName L1
SYMATTR Value 12
SYMATTR Type ind
SYMBOL ind2 560 96 R0
SYMATTR InstName L2
SYMATTR Value 15m
SYMATTR Type ind
SYMBOL res 688 64 R90
WINDOW 0 0 56 VBottom 2
WINDOW 3 32 56 VTop 2
SYMATTR InstName R7
SYMATTR Value 0.8
SYMBOL PowerProducts\\LT3080 1776 128 R0
SYMATTR InstName U1
SYMBOL cap 2032 160 R0
SYMATTR InstName C1
SYMATTR Value 2.2µ
SYMBOL cap 1424 160 R0
SYMATTR InstName C2
SYMATTR Value 1.1µ
SYMBOL res 1760 240 R0
SYMATTR InstName R3
SYMATTR Value 500k
SYMBOL res 1424 208 R0
SYMATTR InstName R6
SYMATTR Value 0.2
SYMBOL res 2032 208 R0
SYMATTR InstName R8
SYMATTR Value 0.2
SYMBOL schottky 768 144 R180
WINDOW 0 24 64 Left 2
WINDOW 3 -20 97 Left 2
SYMATTR InstName D1
SYMATTR Value 1N5819
SYMATTR Description Diode
SYMATTR Type diode
SYMBOL schottky 928 80 R0
WINDOW 3 -33 -34 Left 2
SYMATTR Value 1N5819
SYMATTR InstName D2
SYMATTR Description Diode
SYMATTR Type diode
SYMBOL schottky 736 128 R0
WINDOW 0 40 35 Left 2
WINDOW 3 -23 77 Left 2
SYMATTR InstName D3
SYMATTR Value 1N5819
SYMATTR Description Diode
SYMATTR Type diode
SYMBOL schottky 960 192 R180
WINDOW 0 39 31 Left 2
WINDOW 3 -20 -15 Left 2
SYMATTR InstName D4
SYMATTR Value 1N5819
SYMATTR Description Diode
SYMATTR Type diode
SYMBOL ind 1200 112 R90
WINDOW 0 5 56 VBottom 2
WINDOW 3 32 56 VTop 2
SYMATTR InstName L3
SYMATTR Value 0.2
SYMBOL res 1248 208 R0
SYMATTR InstName R5
SYMATTR Value 1.6
SYMBOL polcap 1040 128 R0
WINDOW 3 24 56 Left 2
SYMATTR Value 470µ
SYMATTR InstName C4
SYMATTR Description Capacitor
SYMATTR Type cap
SYMATTR SpiceLine V=2 Irms=3 Rser=0.006 Lser=0
SYMBOL res 1040 208 R0
SYMATTR InstName R9
SYMATTR Value 1.6
SYMBOL voltage 1568 160 R0
WINDOW 123 0 0 Left 0
WINDOW 39 0 0 Left 0
SYMATTR InstName V2
SYMATTR Value 7
SYMBOL polcap 1248 128 R0
WINDOW 3 24 56 Left 2
SYMATTR Value 220µ
SYMATTR InstName C5
SYMATTR Description Capacitor
SYMATTR Type cap
SYMATTR SpiceLine V=2 Irms=3 Rser=0.006 Lser=0
SYMBOL res 2160 176 R0
SYMATTR InstName R4
SYMATTR Value 10
TEXT 456 48 Left 2 !K L1 L2 0.92
TEXT -32 376 Left 2 !.tran 0 1.5 1.4
TEXT 1424 440 Left 2 ;Vcontrol pin should be set to Vout + 2V.
TEXT 1424 472 Left 2 ;R3 is set to 330K  for 3.3V output
TEXT 1424 504 Left 2 ;R3 is set to 500K for 5V output
